Circuit: * C:\Users\sajit\OneDrive\Desktop\Resonova\Draft1.asc

WARNING: Node U2:2 is floating.
WARNING: Node U2:1 is floating.

WARNING: Less than two connections to node n007.  This node is used by r1.
WARNING: Less than two connections to node u2:2.  This node is used by j:u2:1.
WARNING: Less than two connections to node u2:1.  This node is used by j:u2:2.
Direct Newton iteration failed to find .op point.  (Use ".option noopiter" to skip.)
Starting Gmin stepping
Increasing initial diagonal Gmin to 100
Gmin = 100
Gmin = 10.7374
vernier = 0.5
vernier = 0.25
vernier = 0.125
Gmin = 5.17417
vernier = 0.0625
vernier = 0.03125
vernier = 0.015625
vernier = 0.0078125
Gmin = 5.11409
vernier = 0.00390625
vernier = 0.00195312
vernier = 0.000976562
Gmin = 5.0954
vernier = 0.000488281
Gmin = 0
Gmin stepping failed

Starting source stepping with srcstepmethod=0
Source Step = 3.0303%
Source Step = 33.3333%
Source Step = 63.6364%
Source Step = 93.9394%
Source Step = 96.9815%
Source Step = 97.0111%
Source Step = 97.0407%
Source Step = 97.0703%
Source Step = 97.0999%
vernier = 0.00146484
Source Step = 97.1325%
Source Step = 97.1768%
Source Step = 97.2212%
Source Step = 97.2656%
Source Step = 97.31%
vernier = 0.00219727
Source Step = 97.3566%
Source Step = 97.4232%
Source Step = 97.4898%
Source Step = 97.5564%
Source Step = 97.623%
Source Step = 97.6895%
vernier = 0.0032959
Source Step = 97.7894%
Source Step = 97.8893%
Source Step = 97.9892%
Source Step = 98.089%
Source Step = 98.1889%
vernier = 0.00494385
Source Step = 98.3337%
Source Step = 98.4836%
Source Step = 98.6334%
Source Step = 98.7832%
Source Step = 98.933%
vernier = 0.00741577
Source Step = 99.1427%
Source Step = 99.3675%
Source Step = 99.5922%
Source Step = 99.8169%
Source stepping succeeded in finding the operating point.

Ignoring empty pin current: Ix(u2:v+)
Ignoring empty pin current: Ix(u2:v-)
Ignoring empty pin current: Ix(u2:+vss)
Ignoring empty pin current: Ix(u2:-vss)
Ignoring empty pin current: Ix(u2:vo)
Ignoring empty pin current: Ix(u2:v+)
Ignoring empty pin current: Ix(u2:v-)
Ignoring empty pin current: Ix(u2:+vss)
Ignoring empty pin current: Ix(u2:-vss)
Ignoring empty pin current: Ix(u2:vo)

Date: Wed Sep 27 11:23:45 2023
Total elapsed time: 1.276 seconds.

tnom = 27
temp = 27
method = modified trap
totiter = 35884
traniter = 32065
tranpoints = 15796
accept = 15796
rejected = 0
matrix size = 49
fillins = 164
solver = Normal
Avg thread counts: 2.1/2.2/1.3/1.1
Matrix Compiler1: 14.25 KB object code size  3.4/2.0/[1.3]
Matrix Compiler2: 7.17 KB object code size  0.8/1.2/[0.5]

