Circuit: * C:\Users\sajit\OneDrive\Desktop\Resonova\Draft1.asc

Direct Newton iteration failed to find .op point.  (Use ".option noopiter" to skip.)
Starting Gmin stepping
Gmin = 10
Gmin = 1.07374
vernier = 0.5
vernier = 0.25
vernier = 0.125
vernier = 0.0625
Gmin = 1.12184
vernier = 0.03125
vernier = 0.015625
Gmin = 1.05021
vernier = 0.0078125
Gmin = 1.02792
vernier = 0.0104167
vernier = 0.00520833
vernier = 0.00694444
vernier = 0.00347222
Gmin = 1.02037
vernier = 0.00173611
Gmin = 1.01551
vernier = 0.00231481
vernier = 0.00115741
vernier = 0.00154321
Gmin = 1.01248
vernier = 0.000771604
vernier = 0.00102881
Gmin = 1.01046
vernier = 0.000514403
Gmin = 1.00904
vernier = 0.00068587
vernier = 0.000914493
vernier = 0.000457247
Gmin = 1.00777
vernier = 0.000609662
vernier = 0.000457246
Gmin = 1.00685
vernier = 0.000609662
vernier = 0.000457246
Gmin = 0
Gmin stepping failed

Starting source stepping with srcstepmethod=0
Source Step = 3.0303%
Source Step = 33.3333%
Source Step = 63.6364%
Source Step = 93.9394%
Source stepping succeeded in finding the operating point.


Date: Wed Sep 27 10:53:04 2023
Total elapsed time: 1.602 seconds.

tnom = 27
temp = 27
method = modified trap
totiter = 39681
traniter = 31644
tranpoints = 15823
accept = 15810
rejected = 13
matrix size = 27
fillins = 31
solver = Normal
Avg thread counts: 3.1/2.2/1.3/1.1
Matrix Compiler1: 3.67 KB object code size  1.8/1.0/[0.6]
Matrix Compiler2: 3.33 KB object code size  0.8/0.8/[0.4]

